Version 4
SHEET 1 972 680
WIRE 544 112 304 112
WIRE -32 160 -192 160
WIRE 96 160 -32 160
WIRE 384 208 304 208
WIRE 416 208 384 208
WIRE 544 208 544 112
WIRE 544 208 496 208
WIRE 624 208 544 208
WIRE 768 208 624 208
WIRE -192 288 -192 160
WIRE -32 288 -32 160
WIRE 384 304 384 208
WIRE 624 304 624 208
WIRE 768 304 768 208
WIRE -192 480 -192 368
WIRE -32 480 -32 352
WIRE 176 480 176 240
WIRE 224 480 224 240
WIRE 384 480 384 368
WIRE 624 480 624 368
WIRE 768 480 768 368
FLAG -192 480 0
FLAG -32 480 0
FLAG 384 480 0
FLAG 624 480 0
FLAG 176 480 0
FLAG 224 480 0
FLAG 768 480 0
SYMBOL AutoGenerated\\LM2596_5P0_TRANS 96 240 R0
WINDOW 0 104 -199 Bottom 2
WINDOW 3 104 -190 Top 2
SYMATTR InstName U1
SYMBOL voltage -192 272 R0
WINDOW 123 0 0 Left 0
WINDOW 39 24 124 Left 2
SYMATTR SpiceLine Rser=0.1
SYMATTR InstName V1
SYMATTR Value 12
SYMBOL polcap -48 288 R0
WINDOW 3 24 56 Left 2
SYMATTR Value 680µ
SYMATTR InstName C1
SYMATTR Description Capacitor
SYMATTR Type cap
SYMATTR SpiceLine V=16 Irms=985m Rser=0.1 Lser=0
SYMBOL polcap 608 304 R0
WINDOW 3 24 56 Left 2
SYMATTR Value 220µ
SYMATTR InstName C2
SYMATTR Description Capacitor
SYMATTR Type cap
SYMATTR SpiceLine V=10 Irms=180m Rser=0.1 Lser=0
SYMBOL schottky 400 368 R180
WINDOW 0 24 64 Left 2
WINDOW 3 24 0 Left 2
SYMATTR InstName D1
SYMATTR Value MBRS360
SYMATTR Description Diode
SYMATTR Type diode
SYMBOL ind 400 224 R270
WINDOW 0 32 56 VTop 2
WINDOW 3 5 56 VBottom 2
SYMATTR InstName L1
SYMATTR Value 33µ
SYMBOL load 752 304 R0
WINDOW 123 0 0 Left 0
WINDOW 39 0 0 Left 0
SYMATTR InstName I1
SYMATTR Value 3
TEXT -224 544 Left 2 !.tran 0 10m 5m
